Circuit: * E:\Escritorio\Circuitos 2\proyecto\preamp\pream.asc

Direct Newton iteration failed to find .op point.  (Use ".option noopiter" to skip.)
Starting Gmin stepping
Gmin = 10
Gmin = 1.07374
Gmin = 0.115292
Gmin = 0.0123794
Gmin = 0.00132923
Gmin = 0.000142725
Gmin = 1.5325e-005
Gmin = 1.6455e-006
Gmin = 1.76685e-007
Gmin = 1.89714e-008
Gmin = 2.03704e-009
Gmin = 2.18725e-010
Gmin = 2.34854e-011
Gmin = 2.52173e-012
Gmin = 2.70769e-013
Gmin = 0
Gmin stepping succeeded in finding the operating point.


Date: Sat Jul 21 13:02:11 2012
Total elapsed time: 0.229 seconds.

tnom = 27
temp = 27
method = modified trap
totiter = 1815
traniter = 1338
tranpoints = 496
accept = 338
rejected = 158
matrix size = 48
fillins = 42
solver = Normal
Matrix Compiler1: 4,36 KB object code size  3.7/3.3/[1.9]
Matrix Compiler2: 4,34 KB object code size  2.3/3.1/[2.2]


